*Heading
** Job name: Job-6 Model name: Model-2
** Generated by: Abaqus/CAE 2025
*Preprint, echo=NO, model=NO, history=NO, contact=NO
**
** PARTS
**
*Part, name=Part-1
*End Part
**  
*Part, name=rigid2
*End Part
**  
**
** ASSEMBLY
**
*Assembly, name=Assembly
**  
*Instance, name=Part-1-1, part=Part-1
*Node
       1,             20,             20,             10
       2,             20,             19,             10
       3,             20,             18,             10
       4,             20,             17,             10
       5,             20,             16,             10
       6,             20,             15,             10
       7,             20,             14,             10
       8,             20,             13,             10
       9,             20,             12,             10
      10,             20,             11,             10
      11,             20,             10,             10
      12,             20,              9,             10
      13,             20,              8,             10
      14,             20,              7,             10
      15,             20,              6,             10
      16,             20,              5,             10
      17,             20,              4,             10
      18,             20,              3,             10
      19,             20,              2,             10
      20,             20,              1,             10
** ... 4831 like lines cut
*Element, type=C3D8
   1,  232,  233,  254,  253,    1,    2,   23,   22
   2,  233,  234,  255,  254,    2,    3,   24,   23
   3,  234,  235,  256,  255,    3,    4,   25,   24
   4,  235,  236,  257,  256,    4,    5,   26,   25
   5,  236,  237,  258,  257,    5,    6,   27,   26
   6,  237,  238,  259,  258,    6,    7,   28,   27
   7,  238,  239,  260,  259,    7,    8,   29,   28
   8,  239,  240,  261,  260,    8,    9,   30,   29
   9,  240,  241,  262,  261,    9,   10,   31,   30
  10,  241,  242,  263,  262,   10,   11,   32,   31
  11,  242,  243,  264,  263,   11,   12,   33,   32
  12,  243,  244,  265,  264,   12,   13,   34,   33
  13,  244,  245,  266,  265,   13,   14,   35,   34
  14,  245,  246,  267,  266,   14,   15,   36,   35
  15,  246,  247,  268,  267,   15,   16,   37,   36
  16,  247,  248,  269,  268,   16,   17,   38,   37
  17,  248,  249,  270,  269,   17,   18,   39,   38
  18,  249,  250,  271,  270,   18,   19,   40,   39
  19,  250,  251,  272,  271,   19,   20,   41,   40
  20,  251,  252,  273,  272,   20,   21,   42,   41
** ... 3980 like lines cut
*Nset, nset=_PickedSet12, internal, generate
    1,  4851,     1
*Elset, elset=_PickedSet12, internal, generate
    1,  4000,     1
** Section: Section-1
*Solid Section, elset=_PickedSet12, material=Material-1
,
*End Instance
**  
*Instance, name=rigid2-1, part=rigid2
             7,              7,             10
*Node
       1,              0,              0,              0
       2,            1.2,              0,              0
       3,            2.4,              0,              0
       4,            3.6,              0,              0
       5,            4.8,              0,              0
       6,              6,              0,              0
       7,              0,            1.2,              0
       8,            1.2,            1.2,              0
       9,            2.4,            1.2,              0
      10,            3.6,            1.2,              0
      11,            4.8,            1.2,              0
      12,              6,            1.2,              0
      13,              0,            2.4,              0
      14,            1.2,            2.4,              0
      15,            2.4,            2.4,              0
      16,            3.6,            2.4,              0
      17,            4.8,            2.4,              0
      18,              6,            2.4,              0
      19,              0,            3.6,              0
      20,            1.2,            3.6,              0
** ... 16 like lines cut
*Element, type=R3D4
 1,  1,  2,  8,  7
 2,  2,  3,  9,  8
 3,  3,  4, 10,  9
 4,  4,  5, 11, 10
 5,  5,  6, 12, 11
 6,  7,  8, 14, 13
 7,  8,  9, 15, 14
 8,  9, 10, 16, 15
 9, 10, 11, 17, 16
10, 11, 12, 18, 17
11, 13, 14, 20, 19
12, 14, 15, 21, 20
13, 15, 16, 22, 21
14, 16, 17, 23, 22
15, 17, 18, 24, 23
16, 19, 20, 26, 25
17, 20, 21, 27, 26
18, 21, 22, 28, 27
19, 22, 23, 29, 28
20, 23, 24, 30, 29
** ... 5 like lines cut
*Node
      37,              0,              3,              0
*Nset, nset=rigid2-1-RefPt_, internal
37, 
*Elset, elset=rigid2-1, generate
  1,  25,   1
*End Instance
**  
*Nset, nset=Set-1, instance=Part-1-1
  211,  212,  213,  214,  215,  216,  217,  218,  219,  220,  221,  222,  223,  224,  225,  226
  227,  228,  229,  230,  442,  443,  444,  445,  446,  447,  448,  449,  450,  451,  452,  453
  454,  455,  456,  457,  458,  459,  460,  461,  462,  673,  674,  675,  676,  677,  678,  679
  680,  681,  682,  683,  684,  685,  686,  687,  688,  689,  690,  691,  692,  693,  904,  905
  906,  907,  908,  909,  910,  911,  912,  913,  914,  915,  916,  917,  918,  919,  920,  921
  922,  923,  924, 1135, 1136, 1137, 1138, 1139, 1140, 1141, 1142, 1143, 1144, 1145, 1146, 1147
 1148, 1149, 1150, 1151, 1152, 1153, 1154, 1155, 1366, 1367, 1368, 1369, 1370, 1371, 1372, 1373
 1374, 1375, 1376, 1377, 1378, 1379, 1380, 1381, 1382, 1383, 1384, 1385, 1386, 1597, 1598, 1599
 1600, 1601, 1602, 1603, 1604, 1605, 1606, 1607, 1608, 1609, 1610, 1611, 1612, 1613, 1614, 1615
 1616, 1617, 1828, 1829, 1830, 1831, 1832, 1833, 1834, 1835, 1836, 1837, 1838, 1839, 1840, 1841
 1842, 1843, 1844, 1845, 1846, 1847, 1848, 2059, 2060, 2061, 2062, 2063, 2064, 2065, 2066, 2067
 2068, 2069, 2070, 2071, 2072, 2073, 2074, 2075, 2076, 2077, 2078, 2079, 2290, 2291, 2292, 2293
 2294, 2295, 2296, 2297, 2298, 2299, 2300, 2301, 2302, 2303, 2304, 2305, 2306, 2307, 2308, 2309
 2310, 2521, 2522, 2523, 2524, 2525, 2526, 2527, 2528, 2529, 2530, 2531, 2532, 2533, 2534, 2535
 2536, 2537, 2538, 2539, 2540, 2541, 2752, 2753, 2754, 2755, 2756, 2757, 2758, 2759, 2760, 2761
 2762, 2763, 2764, 2765, 2766, 2767, 2768, 2769, 2770, 2771, 2772, 2983, 2984, 2985, 2986, 2987
 2988, 2989, 2990, 2991, 2992, 2993, 2994, 2995, 2996, 2997, 2998, 2999, 3000, 3001, 3002, 3003
 3214, 3215, 3216, 3217, 3218, 3219, 3220, 3221, 3222, 3223, 3224, 3225, 3226, 3227, 3228, 3229
 3230, 3231, 3232, 3233, 3234, 3445, 3446, 3447, 3448, 3449, 3450, 3451, 3452, 3453, 3454, 3455
 3456, 3457, 3458, 3459, 3460, 3461, 3462, 3463, 3464, 3465, 3676, 3677, 3678, 3679, 3680, 3681
** ... 8 like lines cut
*Nset, nset=_PickedSet6, internal, instance=Part-1-1
  211,  212,  213,  214,  215,  216,  217,  218,  219,  220,  221,  222,  223,  224,  225,  226
  227,  228,  229,  230,  231,  442,  443,  444,  445,  446,  447,  448,  449,  450,  451,  452
  453,  454,  455,  456,  457,  458,  459,  460,  461,  462,  673,  674,  675,  676,  677,  678
  679,  680,  681,  682,  683,  684,  685,  686,  687,  688,  689,  690,  691,  692,  693,  904
  905,  906,  907,  908,  909,  910,  911,  912,  913,  914,  915,  916,  917,  918,  919,  920
  921,  922,  923,  924, 1135, 1136, 1137, 1138, 1139, 1140, 1141, 1142, 1143, 1144, 1145, 1146
 1147, 1148, 1149, 1150, 1151, 1152, 1153, 1154, 1155, 1366, 1367, 1368, 1369, 1370, 1371, 1372
 1373, 1374, 1375, 1376, 1377, 1378, 1379, 1380, 1381, 1382, 1383, 1384, 1385, 1386, 1597, 1598
 1599, 1600, 1601, 1602, 1603, 1604, 1605, 1606, 1607, 1608, 1609, 1610, 1611, 1612, 1613, 1614
 1615, 1616, 1617, 1828, 1829, 1830, 1831, 1832, 1833, 1834, 1835, 1836, 1837, 1838, 1839, 1840
 1841, 1842, 1843, 1844, 1845, 1846, 1847, 1848, 2059, 2060, 2061, 2062, 2063, 2064, 2065, 2066
 2067, 2068, 2069, 2070, 2071, 2072, 2073, 2074, 2075, 2076, 2077, 2078, 2079, 2290, 2291, 2292
 2293, 2294, 2295, 2296, 2297, 2298, 2299, 2300, 2301, 2302, 2303, 2304, 2305, 2306, 2307, 2308
 2309, 2310, 2521, 2522, 2523, 2524, 2525, 2526, 2527, 2528, 2529, 2530, 2531, 2532, 2533, 2534
 2535, 2536, 2537, 2538, 2539, 2540, 2541, 2752, 2753, 2754, 2755, 2756, 2757, 2758, 2759, 2760
 2761, 2762, 2763, 2764, 2765, 2766, 2767, 2768, 2769, 2770, 2771, 2772, 2983, 2984, 2985, 2986
 2987, 2988, 2989, 2990, 2991, 2992, 2993, 2994, 2995, 2996, 2997, 2998, 2999, 3000, 3001, 3002
 3003, 3214, 3215, 3216, 3217, 3218, 3219, 3220, 3221, 3222, 3223, 3224, 3225, 3226, 3227, 3228
 3229, 3230, 3231, 3232, 3233, 3234, 3445, 3446, 3447, 3448, 3449, 3450, 3451, 3452, 3453, 3454
 3455, 3456, 3457, 3458, 3459, 3460, 3461, 3462, 3463, 3464, 3465, 3676, 3677, 3678, 3679, 3680
** ... 8 like lines cut
*Elset, elset=_PickedSet6, internal, instance=Part-1-1
  181,  182,  183,  184,  185,  186,  187,  188,  189,  190,  191,  192,  193,  194,  195,  196
  197,  198,  199,  200,  381,  382,  383,  384,  385,  386,  387,  388,  389,  390,  391,  392
  393,  394,  395,  396,  397,  398,  399,  400,  581,  582,  583,  584,  585,  586,  587,  588
  589,  590,  591,  592,  593,  594,  595,  596,  597,  598,  599,  600,  781,  782,  783,  784
  785,  786,  787,  788,  789,  790,  791,  792,  793,  794,  795,  796,  797,  798,  799,  800
  981,  982,  983,  984,  985,  986,  987,  988,  989,  990,  991,  992,  993,  994,  995,  996
  997,  998,  999, 1000, 1181, 1182, 1183, 1184, 1185, 1186, 1187, 1188, 1189, 1190, 1191, 1192
 1193, 1194, 1195, 1196, 1197, 1198, 1199, 1200, 1381, 1382, 1383, 1384, 1385, 1386, 1387, 1388
 1389, 1390, 1391, 1392, 1393, 1394, 1395, 1396, 1397, 1398, 1399, 1400, 1581, 1582, 1583, 1584
 1585, 1586, 1587, 1588, 1589, 1590, 1591, 1592, 1593, 1594, 1595, 1596, 1597, 1598, 1599, 1600
 1781, 1782, 1783, 1784, 1785, 1786, 1787, 1788, 1789, 1790, 1791, 1792, 1793, 1794, 1795, 1796
 1797, 1798, 1799, 1800, 1981, 1982, 1983, 1984, 1985, 1986, 1987, 1988, 1989, 1990, 1991, 1992
 1993, 1994, 1995, 1996, 1997, 1998, 1999, 2000, 2181, 2182, 2183, 2184, 2185, 2186, 2187, 2188
 2189, 2190, 2191, 2192, 2193, 2194, 2195, 2196, 2197, 2198, 2199, 2200, 2381, 2382, 2383, 2384
 2385, 2386, 2387, 2388, 2389, 2390, 2391, 2392, 2393, 2394, 2395, 2396, 2397, 2398, 2399, 2400
 2581, 2582, 2583, 2584, 2585, 2586, 2587, 2588, 2589, 2590, 2591, 2592, 2593, 2594, 2595, 2596
 2597, 2598, 2599, 2600, 2781, 2782, 2783, 2784, 2785, 2786, 2787, 2788, 2789, 2790, 2791, 2792
 2793, 2794, 2795, 2796, 2797, 2798, 2799, 2800, 2981, 2982, 2983, 2984, 2985, 2986, 2987, 2988
 2989, 2990, 2991, 2992, 2993, 2994, 2995, 2996, 2997, 2998, 2999, 3000, 3181, 3182, 3183, 3184
 3185, 3186, 3187, 3188, 3189, 3190, 3191, 3192, 3193, 3194, 3195, 3196, 3197, 3198, 3199, 3200
** ... 5 like lines cut
*Nset, nset=_PickedSet19, internal, instance=rigid2-1
 37,
*Elset, elset=__PickedSurf20_SNEG, internal, instance=rigid2-1, generate
  1,  25,   1
*Surface, type=ELEMENT, name=_PickedSurf20, internal
__PickedSurf20_SNEG, SNEG
*Elset, elset=__PickedSurf21_S3, internal, instance=Part-1-1
    1,    2,    3,    4,    5,    6,    7,    8,    9,   10,   11,   12,   13,   14,   15,   16
   17,   18,   19,   20,  201,  202,  203,  204,  205,  206,  207,  208,  209,  210,  211,  212
  213,  214,  215,  216,  217,  218,  219,  220,  401,  402,  403,  404,  405,  406,  407,  408
  409,  410,  411,  412,  413,  414,  415,  416,  417,  418,  419,  420,  601,  602,  603,  604
  605,  606,  607,  608,  609,  610,  611,  612,  613,  614,  615,  616,  617,  618,  619,  620
  801,  802,  803,  804,  805,  806,  807,  808,  809,  810,  811,  812,  813,  814,  815,  816
  817,  818,  819,  820, 1001, 1002, 1003, 1004, 1005, 1006, 1007, 1008, 1009, 1010, 1011, 1012
 1013, 1014, 1015, 1016, 1017, 1018, 1019, 1020, 1201, 1202, 1203, 1204, 1205, 1206, 1207, 1208
 1209, 1210, 1211, 1212, 1213, 1214, 1215, 1216, 1217, 1218, 1219, 1220, 1401, 1402, 1403, 1404
 1405, 1406, 1407, 1408, 1409, 1410, 1411, 1412, 1413, 1414, 1415, 1416, 1417, 1418, 1419, 1420
 1601, 1602, 1603, 1604, 1605, 1606, 1607, 1608, 1609, 1610, 1611, 1612, 1613, 1614, 1615, 1616
 1617, 1618, 1619, 1620, 1801, 1802, 1803, 1804, 1805, 1806, 1807, 1808, 1809, 1810, 1811, 1812
 1813, 1814, 1815, 1816, 1817, 1818, 1819, 1820, 2001, 2002, 2003, 2004, 2005, 2006, 2007, 2008
 2009, 2010, 2011, 2012, 2013, 2014, 2015, 2016, 2017, 2018, 2019, 2020, 2201, 2202, 2203, 2204
 2205, 2206, 2207, 2208, 2209, 2210, 2211, 2212, 2213, 2214, 2215, 2216, 2217, 2218, 2219, 2220
 2401, 2402, 2403, 2404, 2405, 2406, 2407, 2408, 2409, 2410, 2411, 2412, 2413, 2414, 2415, 2416
 2417, 2418, 2419, 2420, 2601, 2602, 2603, 2604, 2605, 2606, 2607, 2608, 2609, 2610, 2611, 2612
 2613, 2614, 2615, 2616, 2617, 2618, 2619, 2620, 2801, 2802, 2803, 2804, 2805, 2806, 2807, 2808
 2809, 2810, 2811, 2812, 2813, 2814, 2815, 2816, 2817, 2818, 2819, 2820, 3001, 3002, 3003, 3004
 3005, 3006, 3007, 3008, 3009, 3010, 3011, 3012, 3013, 3014, 3015, 3016, 3017, 3018, 3019, 3020
** ... 5 like lines cut
*Surface, type=ELEMENT, name=_PickedSurf21, internal
__PickedSurf21_S3, S3
*Rigid Body, ref node=rigid2-1.rigid2-1-RefPt_, elset=rigid2-1.rigid2-1
*Nset, nset="_T-Part-1-1-Datum csys-1", internal
_PickedSet6, 
_PickedSet19, 
*Transform, nset="_T-Part-1-1-Datum csys-1"
          1.,           0.,           0.,           0.,           1.,           0.
*End Assembly
*Amplitude, name=Amp-1
             0.,              0.,             0.1,            0.05,             0.2,             0.1,             0.3,            0.15
            0.4,             0.2,             0.5,            0.25,             0.6,             0.3,             0.7,            0.35
            0.8,             0.4,             0.9,            0.45,              1.,             0.5
** 
** MATERIALS
** 
*Material, name=Material-1
*Elastic
100000., 0.49
*Material, name=Material-2
*Elastic
100000., 0.49
** 
** INTERACTION PROPERTIES
** 
*Surface Interaction, name=IntProp-1
1.,
*Surface Behavior, pressure-overclosure=HARD
** 
** BOUNDARY CONDITIONS
** 
** Name: BC-1 Type: Symmetry/Antisymmetry/Encastre
*Boundary
_PickedSet6, ENCASTRE
** Name: BC-2 Type: Displacement/Rotation
*Boundary
_PickedSet19, 3, 3
** 
** INTERACTIONS
** 
** Interaction: Int-1
*Contact Pair, interaction=IntProp-1
_PickedSurf21, _PickedSurf20
** ----------------------------------------------------------------
** 
** STEP: Step-1
** 
*Step, name=Step-1, nlgeom=YES, inc=10000
*Static
1e-05, 1., 1e-15, 1.
** 
** BOUNDARY CONDITIONS
** 
** Name: BC-2 Type: Displacement/Rotation
*Boundary, amplitude=Amp-1
_PickedSet19, 1, 1
_PickedSet19, 2, 2
_PickedSet19, 3, 3, -2.5
_PickedSet19, 4, 4
_PickedSet19, 5, 5
_PickedSet19, 6, 6
** 
** OUTPUT REQUESTS
** 
*Restart, write, frequency=0
** 
** FIELD OUTPUT: F-Output-1
** 
*Output, field, variable=PRESELECT
*Contact Output
CPRESS, COPEN, CSTATUS
** 
** HISTORY OUTPUT: H-Output-1
** 
*Output, history, variable=PRESELECT
*End Step
